%nproc=4
%mem=5760MB
%chk=gaussian_1_scn.chk
#P MP2/aug-cc-pVTZ scf(maxcycle=200) opt geom(AddGIC)

Gaussian input

-1 1
N      0.000000000000000      0.000000000000000     -1.820943000000000
C      0.000000000000000      0.000000000000000     -0.628586000000000
S      0.144624128062603      0.000000000000000      1.026073650383163

A(1,2,3) Freeze

