%nproc=4
%mem=5760MB
%chk=gaussian_8_scn.chk
#P MP2/aug-cc-pVTZ scf(maxcycle=200) opt geom(AddGIC)

Gaussian input

-1 1
N      0.000000000000000      0.000000000000000     -1.820943000000000
C      0.000000000000000      0.000000000000000     -0.628586000000000
S      0.904511177686336      0.000000000000000      0.764494839888510

A(1,2,3) Freeze

